Metadata-Version: 2.1
Name: modflow-devtools
Version: 0.1.2
Summary: modflow-devtools is a Python package containing tools for MODFLOW development.
Home-page: https://github.com/MODFLOW-USGS/modflow-devtools
Download-URL: https://pypi.org/project/modflow-devtools
Author: Joseph D. Hughes
Author-email: modflow@usgs.gov
Maintainer: Joseph D. Hughes
Maintainer-email: jdhughes@usgs.gov
License: CC0
Project-URL: Documentation, https://mfpymake.readthedocs.io
Project-URL: Bug Tracker, https://github.com/MODFLOW-USGS/modflow-devtools/issues
Project-URL: Source Code, https://github.com/MODFLOW-USGS/modflow-devtools
Keywords: MODFLOW,development
Platform: Windows
Platform: Mac OS-X
Platform: Linux
Classifier: Development Status :: 3 - Alpha
Classifier: Intended Audience :: Science/Research
Classifier: License :: CC0 1.0 Universal (CC0 1.0) Public Domain Dedication
Classifier: Operating System :: Microsoft :: Windows
Classifier: Operating System :: POSIX
Classifier: Operating System :: Unix
Classifier: Operating System :: MacOS
Classifier: Programming Language :: Python
Classifier: Programming Language :: Python :: 3
Classifier: Programming Language :: Python :: 3.8
Classifier: Programming Language :: Python :: 3.9
Classifier: Programming Language :: Python :: 3.10
Classifier: Programming Language :: Python :: 3.11
Classifier: Programming Language :: Python :: 3 :: Only
Classifier: Topic :: Scientific/Engineering :: Hydrology
Requires-Python: >=3.8
Description-Content-Type: text/markdown
License-File: LICENSE.md
Requires-Dist: numpy
Requires-Dist: pytest
Provides-Extra: docs
Requires-Dist: sphinx ; extra == 'docs'
Requires-Dist: sphinx-rtd-theme ; extra == 'docs'
Requires-Dist: myst-parser ; extra == 'docs'
Provides-Extra: lint
Requires-Dist: black ; extra == 'lint'
Requires-Dist: cffconvert ; extra == 'lint'
Requires-Dist: flake8 ; extra == 'lint'
Requires-Dist: isort ; extra == 'lint'
Requires-Dist: pylint ; extra == 'lint'
Provides-Extra: test
Requires-Dist: black ; extra == 'test'
Requires-Dist: cffconvert ; extra == 'test'
Requires-Dist: flake8 ; extra == 'test'
Requires-Dist: isort ; extra == 'test'
Requires-Dist: pylint ; extra == 'test'
Requires-Dist: coverage ; extra == 'test'
Requires-Dist: flaky ; extra == 'test'
Requires-Dist: filelock ; extra == 'test'
Requires-Dist: meson (!=0.63.0) ; extra == 'test'
Requires-Dist: ninja ; extra == 'test'
Requires-Dist: pytest-cases ; extra == 'test'
Requires-Dist: pytest-cov ; extra == 'test'
Requires-Dist: pytest-dotenv ; extra == 'test'
Requires-Dist: pytest-xdist ; extra == 'test'
Requires-Dist: PyYaml ; extra == 'test'

License
=======

Unless otherwise noted, This project is in the public domain in the United
States because it contains materials that originally came from the United
States Geological Survey, an agency of the United States Department of
Interior. For more information, see the official USGS copyright policy at
https://www2.usgs.gov/visual-id/credit_usgs.html#copyright

Additionally, we waive copyright and related rights in the work
worldwide through the CC0 1.0 Universal public domain dedication.


CC0 1.0 Universal Summary
-------------------------

This is a human-readable summary of the
[Legal Code (read the full text)][1].


### No Copyright

The person who associated a work with this deed has dedicated the work to
the public domain by waiving all of his or her rights to the work worldwide
under copyright law, including all related and neighboring rights, to the
extent allowed by law.

You can copy, modify, distribute and perform the work, even for commercial
purposes, all without asking permission.


### Other Information

In no way are the patent or trademark rights of any person affected by CC0,
nor are the rights that other persons may have in the work or in how the
work is used, such as publicity or privacy rights.

Unless expressly stated otherwise, the person who associated a work with
this deed makes no warranties about the work, and disclaims liability for
all uses of the work, to the fullest extent permitted by applicable law.
When using or citing the work, you should not imply endorsement by the
author or the affirmer.



[1]: https://creativecommons.org/publicdomain/zero/1.0/legalcode
